POWER DISTRIBUTION
*SPICE Netlist generated by Advanced Sim server on 1/27/2020 11:30:13 AM

*Schematic Netlist:

.SAVE 0


*Selected Circuit Analyses:
.TRAN 2E-8 5E-6 0 2E-8
.OP

.END
